[Format]      =  1
[Precision]   =  1e-008
[MinAngle]    =  30
[Depth]       =  1
[LengthUnits] =  millimeters
[ProblemType] =  axisymmetric
[Coordinates] =  cartesian
[Comment]     =  "Add comments here."
[PointProps]   = 0
[BdryProps]   = 2
  <BeginBdry>
    <BdryName> = "Bottom"
    <BdryType> = 0
    <Vs> = -1
    <qs> = 0
    <c0> = 0
    <c1> = 0
  <EndBdry>
  <BeginBdry>
    <BdryName> = "Top"
    <BdryType> = 0
    <Vs> = 1
    <qs> = 0
    <c0> = 0
    <c1> = 0
  <EndBdry>
[BlockProps]  = 9
  <BeginBlock>
    <BlockName> = "Cu"
    <ex> = 1
    <ey> = 1
    <qv> = 0
  <EndBlock>
  <BeginBlock>
    <BlockName> = "Air"
    <ex> = 1
    <ey> = 1
    <qv> = 0
  <EndBlock>
  <BeginBlock>
    <BlockName> = "e1"
    <ex> = 0.33861114976053774
    <ey> = 0.33861114976053774
    <qv> = 0
  <EndBlock>
  <BeginBlock>
    <BlockName> = "e2"
    <ex> = 9.1183081632902905
    <ey> = 9.1183081632902905
    <qv> = 0
  <EndBlock>
  <BeginBlock>
    <BlockName> = "e3"
    <ex> = 0.067488419813100609
    <ey> = 0.067488419813100609
    <qv> = 0
  <EndBlock>
  <BeginBlock>
    <BlockName> = "e4"
    <ex> = 34.531529889220678
    <ey> = 34.531529889220678
    <qv> = 0
  <EndBlock>
  <BeginBlock>
    <BlockName> = "e5"
    <ex> = 0.036240097325107842
    <ey> = 0.036240097325107842
    <qv> = 0
  <EndBlock>
  <BeginBlock>
    <BlockName> = "e6"
    <ex> = 185.49170522984019
    <ey> = 185.49170522984019
    <qv> = 0
  <EndBlock>
  <BeginBlock>
    <BlockName> = "e7"
    <ex> = 0.029097333010944249
    <ey> = 0.029097333010944249
    <qv> = 0
  <EndBlock>
[ConductorProps]  = 0
[NumPoints] = 26
0	1	0	0	0
0	1.2	0	0	0
2	1	0	0	0
2	1.2	0	0	0
2	0	0	0	0
2	-0.20000000000000001	0	0	0
1.8999999999999999	-0.050000000000000003	0	0	0
1.8999999999999999	-0.25	0	0	0
0	-0.050000000000000003	0	0	0
0	-0.25	0	0	0
0	-2.9103030000000008	0	0	0
0	4.6703030000000005	0	0	0
0	-2.5657300000000003	0	0	0
0	4.3257300000000001	0	0	0
0	-2.6149547142857141	0	0	0
0	4.3749547142857139	0	0	0
0	-2.6641794285714289	0	0	0
0	4.4241794285714287	0	0	0
0	-2.7134041428571436	0	0	0
0	4.4734041428571434	0	0	0
0	-2.7626288571428574	0	0	0
0	4.5226288571428572	0	0	0
0	-2.8118535714285713	0	0	0
0	4.5718535714285711	0	0	0
0	-2.861078285714286	0	0	0
0	4.6210782857142858	0	0	0
[NumSegments] = 27
0	2	-1	2	0	0	0
2	3	-1	2	0	0	0
3	1	-1	2	0	0	0
9	7	-1	1	0	0	0
7	5	-1	1	0	0	0
5	4	-1	1	0	0	0
4	6	-1	1	0	0	0
6	8	-1	1	0	0	0
10	24	-1	0	0	0	0
8	0	-1	0	0	0	0
1	13	-1	0	0	0	0
12	9	-1	0	0	0	0
13	15	-1	0	0	0	0
14	12	-1	0	0	0	0
15	17	-1	0	0	0	0
16	14	-1	0	0	0	0
17	19	-1	0	0	0	0
18	16	-1	0	0	0	0
19	21	-1	0	0	0	0
20	18	-1	0	0	0	0
21	23	-1	0	0	0	0
22	20	-1	0	0	0	0
23	25	-1	0	0	0	0
24	22	-1	0	0	0	0
25	11	-1	0	0	0	0
1	0	-1	0	0	0	0
8	9	-1	1	0	0	0
[NumArcSegments] = 8
12	13	180	1	0	0	0	0
14	15	180	1	0	0	0	0
16	17	180	1	0	0	0	0
18	19	180	1	0	0	0	0
20	21	180	1	0	0	0	0
22	23	180	1	0	0	0	0
24	25	180	1	0	0	0	0
10	11	180	1	0	0	0	0
[NumHoles] = 0
[NumBlockLabels] = 10
0.81000000000000005	1.0600000000000001	1	-1	0	0
0.96999999999999997	-0.19	1	-1	0	0
0.81000000000000005	2.0099999999999998	2	-1	0	0
3.4036607018455647	1.5570302079612095	3	-1	0	0
3.2516559805935472	2.2268800073334329	4	-1	0	0
2.9673419224563657	2.8627144839877281	5	-1	0	0
2.5583240015948192	3.4383240015948187	6	-1	0	0
2.0374100559598034	3.9291996306620578	7	-1	0	0
1.4222299378136252	4.3135668046826963	8	-1	0	0
0.73464980012812053	4.5733339530664647	9	-1	0	0
